<?xml version='1.0' encoding='UTF-8'?>
<routes xmlns:xsi="http://www.w3.org/2001/XMLSchema-instance" xsi:noNamespaceSchemaLocation="http://sumo.dlr.de/xsd/routes_file.xsd">
    
    
    
    <vType id="hdv" length="4.3" carFollowModel="IDM" emergencyDecel="4.0" laneChangeModel="SL2015" latAlignment="arbitrary" lcKeepRight="0.0" lcOvertakeRight="0.0" maxSpeed="13.41" minGap="2.5" accel="1.0" decel="2" tau="1.4" lcSublane="1.0" maxSpeedLat="5" lcAccelLat="0.7" minGapLat="0.4" lcStrategic="0.5" lcCooperative="1.0" lcPushy="0.4" lcImpatience="0." lcSpeedGain="2.0" />
    <vType id="cav" length="4.3" carFollowModel="IDM" emergencyDecel="4.0" laneChangeModel="SL2015" latAlignment="arbitrary" lcKeepRight="0.0" lcOvertakeRight="0.0" maxSpeed="13.41" minGap="2.5" accel="1.0" decel="2" tau="1.4" lcSublane="1.0" maxSpeedLat="5" lcAccelLat="1.2" minGapLat="0.4" lcStrategic="0.5" lcCooperative="1.0" lcPushy="0.4" lcImpatience="0.9" lcSpeedGain="2.0" />
    <route id="1" edges="-163148288#1 1000784669#1" />
    <route id="2" edges="435381830#0 163148288#1" />
    <route id="3" edges="435542913#0 421101869#1" />
    <route id="4" edges="435542926#0 626352352#1" />
    <route id="5" edges="435561321#0 314011263#2" />
    <route id="6" edges="435561332#0 314011259#1" />
    <route id="7" edges="95357377#0 904944345#1" />
    <route id="8" edges="-163148288#1 -435834768#0 -435381809#0" />
    <route id="9" edges="-185528581#1 990453574#1 314011259#1" />
    <route id="10" edges="-185528581#1 990453574#1 314011263#2" />
    <route id="11" edges="-435834767 -435381806#1 -435381803#0" />
    <route id="12" edges="435381803#0 435381806#1 435834767" />
    <route id="13" edges="435381809#0 435834768#0 1000784669#1" />
    <route id="14" edges="435381809#0 435834768#0 163148288#1" />
    <route id="15" edges="435381830#0 -435834768#0 -435381809#0" />
    <route id="16" edges="435542910#0 294592601#1 294592601#2" />
    <route id="17" edges="435561321#0 -435561326#0 -435561323" />
    <route id="18" edges="435561321#0 56150137#1 -625621676#0" />
    <route id="19" edges="435561323 435561326#0 314011259#1" />
    <route id="20" edges="435561323 435561326#0 314011263#2" />
    <route id="21" edges="435561332#0 -435561326#0 -435561323" />
    <route id="22" edges="435561332#0 56150137#1 -625621676#0" />
    <route id="23" edges="740147205#0 740147205#1 E1" />
    <route id="24" edges="E0 -740147205#1 -740147205#0" />
    <route id="25" edges="E0 143926851#1 185528581#1" />
    <route id="26" edges="-163148288#1 377897003#1 435381826#0 -435381803#0" />
    <route id="27" edges="-185528581#1 990453574#1 -435561326#0 -435561323" />
    <route id="28" edges="435381803#0 377897004#1 435381825#0 1000784669#1" />
    <route id="29" edges="435381803#0 377897004#1 435381825#0 163148288#1" />
    <route id="30" edges="435381830#0 377897003#1 435381826#0 -435381803#0" />
    <route id="31" edges="435542910#0 435542901#1 435542903#0 E1" />
    <route id="32" edges="435542913#0 435542901#1 435542903#0 E1" />
    <route id="33" edges="435542926#0 435542924#1 435542920 421101869#1" />
    <route id="34" edges="435542926#0 904944343#1 435542922#0 1029341655#1" />
    <route id="35" edges="435561323 435561326#0 56150137#1 -625621676#0" />
    <route id="36" edges="445359457#0 980841225#1 435542921#0 626352352#1" />
    <route id="37" edges="445359457#0 980841225#1 435542921#0 904944345#1" />
    <route id="38" edges="625621676#0 56150137#2 435561310#0 E1" />
    <route id="39" edges="740147205#0 740147205#1 143926851#1 185528581#1" />
    <route id="40" edges="95357377#0 435542924#1 435542920 421101869#1" />
    <route id="41" edges="95357377#0 904944343#1 435542922#0 1029341655#1" />
    <route id="42" edges="E0 143926851#1 990453574#1 314011259#1" />
    <route id="43" edges="E0 143926851#1 990453574#1 314011263#2" />
    <route id="44" edges="E0 488357314#1 435542902#0 421101869#1" />
    <route id="45" edges="-163148288#1 377897003#1 435381826#0 435381806#1 435834767" />
    <route id="46" edges="-435834767 -435381806#1 377897004#1 435381825#0 1000784669#1" />
    <route id="47" edges="-435834767 -435381806#1 377897004#1 435381825#0 163148288#1" />
    <route id="48" edges="435381803#0 163148368#1 56150140 435542925#0 1029341655#1" />
    <route id="49" edges="435381803#0 377897004#1 435381825#0 -435834768#0 -435381809#0" />
    <route id="50" edges="435381809#0 435834768#0 377897003#1 435381826#0 -435381803#0" />
    <route id="51" edges="435381830#0 377897003#1 435381826#0 435381806#1 435834767" />
    <route id="52" edges="435542910#0 435542901#1 435542903#0 -740147205#1 -740147205#0" />
    <route id="53" edges="435542910#0 435542901#1 435542903#0 143926851#1 185528581#1" />
    <route id="54" edges="435542910#0 435542919 626290592 277219207#0 626352352#1" />
    <route id="55" edges="435542910#0 435542919 626290592 277219207#0 904944345#1" />
    <route id="56" edges="435542913#0 435542901#1 435542903#0 -740147205#1 -740147205#0" />
    <route id="57" edges="435542913#0 435542901#1 435542903#0 143926851#1 185528581#1" />
    <route id="58" edges="435542913#0 435542919 626290592 277219207#0 626352352#1" />
    <route id="59" edges="435542913#0 435542919 626290592 277219207#0 904944345#1" />
    <route id="60" edges="435542926#0 435542924#1 435542920 294592601#1 294592601#2" />
    <route id="61" edges="435561321#0 56150137#1 56150137#2 435561310#0 E1" />
    <route id="62" edges="435561332#0 56150137#1 56150137#2 435561310#0 E1" />
    <route id="63" edges="625621676#0 56150137#2 435561310#0 -740147205#1 -740147205#0" />
    <route id="64" edges="740147205#0 740147205#1 143926851#1 990453574#1 314011259#1" />
    <route id="65" edges="740147205#0 740147205#1 143926851#1 990453574#1 314011263#2" />
    <route id="66" edges="740147205#0 740147205#1 488357314#1 435542902#0 421101869#1" />
    <route id="67" edges="95357377#0 435542924#1 435542920 294592601#1 294592601#2" />
    <route id="68" edges="E0 143926851#1 990453574#1 -435561326#0 -435561323" />
    <route id="69" edges="E0 488357314#1 435542902#0 294592601#1 294592601#2" />
    <route id="70" edges="-435834767 -435381806#1 163148368#1 56150140 435542925#0 1029341655#1" />
    <route id="71" edges="-435834767 -435381806#1 377897004#1 435381825#0 -435834768#0 -435381809#0" />
    <route id="72" edges="435381809#0 435834768#0 377897003#1 435381826#0 435381806#1 435834767" />
    <route id="73" edges="435542910#0 435542901#1 435542903#0 143926851#1 990453574#1 314011259#1" />
    <route id="74" edges="435542910#0 435542901#1 435542903#0 143926851#1 990453574#1 314011263#2" />
    <route id="75" edges="435542913#0 435542901#1 435542903#0 143926851#1 990453574#1 314011259#1" />
    <route id="76" edges="435542913#0 435542901#1 435542903#0 143926851#1 990453574#1 314011263#2" />
    <route id="77" edges="435542926#0 435542924#1 435542920 435542901#1 435542903#0 E1" />
    <route id="78" edges="435561321#0 56150137#1 56150137#2 435561310#0 -740147205#1 -740147205#0" />
    <route id="79" edges="435561323 435561326#0 56150137#1 56150137#2 435561310#0 E1" />
    <route id="80" edges="435561332#0 56150137#1 56150137#2 435561310#0 -740147205#1 -740147205#0" />
    <route id="81" edges="445359457#0 435542918#1 1243008255 23887479 435381827#0 -435381803#0" />
    <route id="82" edges="445359457#0 980841225#1 435542921#0 435542924#1 435542920 421101869#1" />
    <route id="83" edges="625621676#0 56150137#2 435561310#0 488357314#1 435542902#0 421101869#1" />
    <route id="84" edges="740147205#0 740147205#1 143926851#1 990453574#1 -435561326#0 -435561323" />
    <route id="85" edges="740147205#0 740147205#1 488357314#1 435542902#0 294592601#1 294592601#2" />
    <route id="86" edges="95357377#0 435542924#1 435542920 435542901#1 435542903#0 E1" />
    <route id="87" edges="-163148288#1 377897003#1 435381826#0 163148368#1 56150140 435542925#0 1029341655#1" />
    <route id="88" edges="435381803#0 163148368#1 56150140 435542925#0 980841225#1 435542921#0 626352352#1" />
    <route id="89" edges="435381803#0 163148368#1 56150140 435542925#0 980841225#1 435542921#0 904944345#1" />
    <route id="90" edges="435381830#0 377897003#1 435381826#0 163148368#1 56150140 435542925#0 1029341655#1" />
    <route id="91" edges="435542910#0 435542901#1 435542903#0 143926851#1 990453574#1 -435561326#0 -435561323" />
    <route id="92" edges="435542910#0 435542919 626290592 277219207#0 904944343#1 435542922#0 1029341655#1" />
    <route id="93" edges="435542913#0 435542901#1 435542903#0 143926851#1 990453574#1 -435561326#0 -435561323" />
    <route id="94" edges="435542913#0 435542919 626290592 277219207#0 904944343#1 435542922#0 1029341655#1" />
    <route id="95" edges="435542926#0 435542924#1 435542920 435542901#1 435542903#0 -740147205#1 -740147205#0" />
    <route id="96" edges="435542926#0 435542924#1 435542920 435542901#1 435542903#0 143926851#1 185528581#1" />
    <route id="97" edges="435561321#0 56150137#1 56150137#2 435561310#0 488357314#1 435542902#0 421101869#1" />
    <route id="98" edges="435561323 435561326#0 56150137#1 56150137#2 435561310#0 -740147205#1 -740147205#0" />
    <route id="99" edges="435561332#0 56150137#1 56150137#2 435561310#0 488357314#1 435542902#0 421101869#1" />
    <route id="100" edges="445359457#0 435542918#1 1243008255 23887479 435381827#0 435381806#1 435834767" />
    <route id="101" edges="445359457#0 980841225#1 435542921#0 435542924#1 435542920 294592601#1 294592601#2" />
    <route id="102" edges="625621676#0 56150137#2 435561310#0 488357314#1 435542902#0 294592601#1 294592601#2" />
    <route id="103" edges="95357377#0 435542924#1 435542920 435542901#1 435542903#0 -740147205#1 -740147205#0" />
    <route id="104" edges="95357377#0 435542924#1 435542920 435542901#1 435542903#0 143926851#1 185528581#1" />
    <route id="105" edges="E0 488357314#1 435542902#0 435542919 626290592 277219207#0 626352352#1" />
    <route id="106" edges="E0 488357314#1 435542902#0 435542919 626290592 277219207#0 904944345#1" />
    <route id="107" edges="-435834767 -435381806#1 163148368#1 56150140 435542925#0 980841225#1 435542921#0 626352352#1" />
    <route id="108" edges="-435834767 -435381806#1 163148368#1 56150140 435542925#0 980841225#1 435542921#0 904944345#1" />
    <route id="109" edges="435381809#0 435834768#0 377897003#1 435381826#0 163148368#1 56150140 435542925#0 1029341655#1" />
    <route id="110" edges="435542926#0 435542924#1 435542920 435542901#1 435542903#0 143926851#1 990453574#1 314011259#1" />
    <route id="111" edges="435542926#0 435542924#1 435542920 435542901#1 435542903#0 143926851#1 990453574#1 314011263#2" />
    <route id="112" edges="435542926#0 904944343#1 435542922#0 435542918#1 1243008255 23887479 435381827#0 -435381803#0" />
    <route id="113" edges="435561321#0 56150137#1 56150137#2 435561310#0 488357314#1 435542902#0 294592601#1 294592601#2" />
    <route id="114" edges="435561323 435561326#0 56150137#1 56150137#2 435561310#0 488357314#1 435542902#0 421101869#1" />
    <route id="115" edges="435561332#0 56150137#1 56150137#2 435561310#0 488357314#1 435542902#0 294592601#1 294592601#2" />
    <route id="116" edges="445359457#0 435542918#1 1243008255 23887479 435381827#0 377897004#1 435381825#0 1000784669#1" />
    <route id="117" edges="445359457#0 435542918#1 1243008255 23887479 435381827#0 377897004#1 435381825#0 163148288#1" />
    <route id="118" edges="445359457#0 980841225#1 435542921#0 435542924#1 435542920 435542901#1 435542903#0 E1" />
    <route id="119" edges="740147205#0 740147205#1 488357314#1 435542902#0 435542919 626290592 277219207#0 626352352#1" />
    <route id="120" edges="740147205#0 740147205#1 488357314#1 435542902#0 435542919 626290592 277219207#0 904944345#1" />
    <route id="121" edges="95357377#0 435542924#1 435542920 435542901#1 435542903#0 143926851#1 990453574#1 314011259#1" />
    <route id="122" edges="95357377#0 435542924#1 435542920 435542901#1 435542903#0 143926851#1 990453574#1 314011263#2" />
    <route id="123" edges="95357377#0 904944343#1 435542922#0 435542918#1 1243008255 23887479 435381827#0 -435381803#0" />
    <route id="124" edges="-163148288#1 377897003#1 435381826#0 163148368#1 56150140 435542925#0 980841225#1 435542921#0 626352352#1" />
    <route id="125" edges="-163148288#1 377897003#1 435381826#0 163148368#1 56150140 435542925#0 980841225#1 435542921#0 904944345#1" />
    <route id="126" edges="435381803#0 163148368#1 56150140 435542925#0 980841225#1 435542921#0 435542924#1 435542920 421101869#1" />
    <route id="127" edges="435381830#0 377897003#1 435381826#0 163148368#1 56150140 435542925#0 980841225#1 435542921#0 626352352#1" />
    <route id="128" edges="435381830#0 377897003#1 435381826#0 163148368#1 56150140 435542925#0 980841225#1 435542921#0 904944345#1" />
    <route id="129" edges="435542926#0 435542924#1 435542920 435542901#1 435542903#0 143926851#1 990453574#1 -435561326#0 -435561323" />
    <route id="130" edges="435542926#0 904944343#1 435542922#0 435542918#1 1243008255 23887479 435381827#0 435381806#1 435834767" />
    <route id="131" edges="435561323 435561326#0 56150137#1 56150137#2 435561310#0 488357314#1 435542902#0 294592601#1 294592601#2" />
    <route id="132" edges="445359457#0 435542918#1 1243008255 23887479 435381827#0 377897004#1 435381825#0 -435834768#0 -435381809#0" />
    <route id="133" edges="445359457#0 980841225#1 435542921#0 435542924#1 435542920 435542901#1 435542903#0 -740147205#1 -740147205#0" />
    <route id="134" edges="445359457#0 980841225#1 435542921#0 435542924#1 435542920 435542901#1 435542903#0 143926851#1 185528581#1" />
    <route id="135" edges="625621676#0 56150137#2 435561310#0 488357314#1 435542902#0 435542919 626290592 277219207#0 626352352#1" />
    <route id="136" edges="625621676#0 56150137#2 435561310#0 488357314#1 435542902#0 435542919 626290592 277219207#0 904944345#1" />
    <route id="137" edges="95357377#0 435542924#1 435542920 435542901#1 435542903#0 143926851#1 990453574#1 -435561326#0 -435561323" />
    <route id="138" edges="95357377#0 904944343#1 435542922#0 435542918#1 1243008255 23887479 435381827#0 435381806#1 435834767" />
    <route id="139" edges="E0 488357314#1 435542902#0 435542919 626290592 277219207#0 904944343#1 435542922#0 1029341655#1" />
    <route id="140" edges="-435834767 -435381806#1 163148368#1 56150140 435542925#0 980841225#1 435542921#0 435542924#1 435542920 421101869#1" />
    <route id="141" edges="435381803#0 163148368#1 56150140 435542925#0 980841225#1 435542921#0 435542924#1 435542920 294592601#1 294592601#2" />
    <route id="142" edges="435381809#0 435834768#0 377897003#1 435381826#0 163148368#1 56150140 435542925#0 980841225#1 435542921#0 626352352#1" />
    <route id="143" edges="435381809#0 435834768#0 377897003#1 435381826#0 163148368#1 56150140 435542925#0 980841225#1 435542921#0 904944345#1" />
    <route id="144" edges="435542926#0 904944343#1 435542922#0 435542918#1 1243008255 23887479 435381827#0 377897004#1 435381825#0 1000784669#1" />
    <route id="145" edges="435542926#0 904944343#1 435542922#0 435542918#1 1243008255 23887479 435381827#0 377897004#1 435381825#0 163148288#1" />
    <route id="146" edges="435561321#0 56150137#1 56150137#2 435561310#0 488357314#1 435542902#0 435542919 626290592 277219207#0 626352352#1" />
    <route id="147" edges="435561321#0 56150137#1 56150137#2 435561310#0 488357314#1 435542902#0 435542919 626290592 277219207#0 904944345#1" />
    <route id="148" edges="435561332#0 56150137#1 56150137#2 435561310#0 488357314#1 435542902#0 435542919 626290592 277219207#0 626352352#1" />
    <route id="149" edges="435561332#0 56150137#1 56150137#2 435561310#0 488357314#1 435542902#0 435542919 626290592 277219207#0 904944345#1" />
    <route id="150" edges="445359457#0 980841225#1 435542921#0 435542924#1 435542920 435542901#1 435542903#0 143926851#1 990453574#1 314011259#1" />
    <route id="151" edges="445359457#0 980841225#1 435542921#0 435542924#1 435542920 435542901#1 435542903#0 143926851#1 990453574#1 314011263#2" />
    <route id="152" edges="740147205#0 740147205#1 488357314#1 435542902#0 435542919 626290592 277219207#0 904944343#1 435542922#0 1029341655#1" />
    <route id="153" edges="95357377#0 904944343#1 435542922#0 435542918#1 1243008255 23887479 435381827#0 377897004#1 435381825#0 1000784669#1" />
    <route id="154" edges="95357377#0 904944343#1 435542922#0 435542918#1 1243008255 23887479 435381827#0 377897004#1 435381825#0 163148288#1" />
    <route id="155" edges="-163148288#1 377897003#1 435381826#0 163148368#1 56150140 435542925#0 980841225#1 435542921#0 435542924#1 435542920 421101869#1" />
    <route id="156" edges="-435834767 -435381806#1 163148368#1 56150140 435542925#0 980841225#1 435542921#0 435542924#1 435542920 294592601#1 294592601#2" />
    <route id="157" edges="435381803#0 163148368#1 56150140 435542925#0 980841225#1 435542921#0 435542924#1 435542920 435542901#1 435542903#0 E1" />
    <route id="158" edges="435381830#0 377897003#1 435381826#0 163148368#1 56150140 435542925#0 980841225#1 435542921#0 435542924#1 435542920 421101869#1" />
    <route id="159" edges="435542910#0 435542919 626290592 277219207#0 904944343#1 435542922#0 435542918#1 1243008255 23887479 435381827#0 -435381803#0" />
    <route id="160" edges="435542913#0 435542919 626290592 277219207#0 904944343#1 435542922#0 435542918#1 1243008255 23887479 435381827#0 -435381803#0" />
    <route id="161" edges="435542926#0 904944343#1 435542922#0 435542918#1 1243008255 23887479 435381827#0 377897004#1 435381825#0 -435834768#0 -435381809#0" />
    <route id="162" edges="435561323 435561326#0 56150137#1 56150137#2 435561310#0 488357314#1 435542902#0 435542919 626290592 277219207#0 626352352#1" />
    <route id="163" edges="435561323 435561326#0 56150137#1 56150137#2 435561310#0 488357314#1 435542902#0 435542919 626290592 277219207#0 904944345#1" />
    <route id="164" edges="445359457#0 980841225#1 435542921#0 435542924#1 435542920 435542901#1 435542903#0 143926851#1 990453574#1 -435561326#0 -435561323" />
    <route id="165" edges="625621676#0 56150137#2 435561310#0 488357314#1 435542902#0 435542919 626290592 277219207#0 904944343#1 435542922#0 1029341655#1" />
    <route id="166" edges="95357377#0 904944343#1 435542922#0 435542918#1 1243008255 23887479 435381827#0 377897004#1 435381825#0 -435834768#0 -435381809#0" />
    <route id="167" edges="-163148288#1 377897003#1 435381826#0 163148368#1 56150140 435542925#0 980841225#1 435542921#0 435542924#1 435542920 294592601#1 294592601#2" />
    <route id="168" edges="-435834767 -435381806#1 163148368#1 56150140 435542925#0 980841225#1 435542921#0 435542924#1 435542920 435542901#1 435542903#0 E1" />
    <route id="169" edges="435381803#0 163148368#1 56150140 435542925#0 980841225#1 435542921#0 435542924#1 435542920 435542901#1 435542903#0 -740147205#1 -740147205#0" />
    <route id="170" edges="435381803#0 163148368#1 56150140 435542925#0 980841225#1 435542921#0 435542924#1 435542920 435542901#1 435542903#0 143926851#1 185528581#1" />
    <route id="171" edges="435381809#0 435834768#0 377897003#1 435381826#0 163148368#1 56150140 435542925#0 980841225#1 435542921#0 435542924#1 435542920 421101869#1" />
    <route id="172" edges="435381830#0 377897003#1 435381826#0 163148368#1 56150140 435542925#0 980841225#1 435542921#0 435542924#1 435542920 294592601#1 294592601#2" />
    <route id="173" edges="435542910#0 435542919 626290592 277219207#0 904944343#1 435542922#0 435542918#1 1243008255 23887479 435381827#0 435381806#1 435834767" />
    <route id="174" edges="435542913#0 435542919 626290592 277219207#0 904944343#1 435542922#0 435542918#1 1243008255 23887479 435381827#0 435381806#1 435834767" />
    <route id="175" edges="435561321#0 56150137#1 56150137#2 435561310#0 488357314#1 435542902#0 435542919 626290592 277219207#0 904944343#1 435542922#0 1029341655#1" />
    <route id="176" edges="435561332#0 56150137#1 56150137#2 435561310#0 488357314#1 435542902#0 435542919 626290592 277219207#0 904944343#1 435542922#0 1029341655#1" />
    <route id="177" edges="-163148288#1 377897003#1 435381826#0 163148368#1 56150140 435542925#0 980841225#1 435542921#0 435542924#1 435542920 435542901#1 435542903#0 E1" />
    <route id="178" edges="-435834767 -435381806#1 163148368#1 56150140 435542925#0 980841225#1 435542921#0 435542924#1 435542920 435542901#1 435542903#0 -740147205#1 -740147205#0" />
    <route id="179" edges="-435834767 -435381806#1 163148368#1 56150140 435542925#0 980841225#1 435542921#0 435542924#1 435542920 435542901#1 435542903#0 143926851#1 185528581#1" />
    <route id="180" edges="435381803#0 163148368#1 56150140 435542925#0 980841225#1 435542921#0 435542924#1 435542920 435542901#1 435542903#0 143926851#1 990453574#1 314011259#1" />
    <route id="181" edges="435381803#0 163148368#1 56150140 435542925#0 980841225#1 435542921#0 435542924#1 435542920 435542901#1 435542903#0 143926851#1 990453574#1 314011263#2" />
    <route id="182" edges="435381809#0 435834768#0 377897003#1 435381826#0 163148368#1 56150140 435542925#0 980841225#1 435542921#0 435542924#1 435542920 294592601#1 294592601#2" />
    <route id="183" edges="435381830#0 377897003#1 435381826#0 163148368#1 56150140 435542925#0 980841225#1 435542921#0 435542924#1 435542920 435542901#1 435542903#0 E1" />
    <route id="184" edges="435542910#0 435542919 626290592 277219207#0 904944343#1 435542922#0 435542918#1 1243008255 23887479 435381827#0 377897004#1 435381825#0 1000784669#1" />
    <route id="185" edges="435542910#0 435542919 626290592 277219207#0 904944343#1 435542922#0 435542918#1 1243008255 23887479 435381827#0 377897004#1 435381825#0 163148288#1" />
    <route id="186" edges="435542913#0 435542919 626290592 277219207#0 904944343#1 435542922#0 435542918#1 1243008255 23887479 435381827#0 377897004#1 435381825#0 1000784669#1" />
    <route id="187" edges="435542913#0 435542919 626290592 277219207#0 904944343#1 435542922#0 435542918#1 1243008255 23887479 435381827#0 377897004#1 435381825#0 163148288#1" />
    <route id="188" edges="435561323 435561326#0 56150137#1 56150137#2 435561310#0 488357314#1 435542902#0 435542919 626290592 277219207#0 904944343#1 435542922#0 1029341655#1" />
    <route id="189" edges="E0 488357314#1 435542902#0 435542919 626290592 277219207#0 904944343#1 435542922#0 435542918#1 1243008255 23887479 435381827#0 -435381803#0" />
    <route id="190" edges="-163148288#1 377897003#1 435381826#0 163148368#1 56150140 435542925#0 980841225#1 435542921#0 435542924#1 435542920 435542901#1 435542903#0 -740147205#1 -740147205#0" />
    <route id="191" edges="-163148288#1 377897003#1 435381826#0 163148368#1 56150140 435542925#0 980841225#1 435542921#0 435542924#1 435542920 435542901#1 435542903#0 143926851#1 185528581#1" />
    <route id="192" edges="-435834767 -435381806#1 163148368#1 56150140 435542925#0 980841225#1 435542921#0 435542924#1 435542920 435542901#1 435542903#0 143926851#1 990453574#1 314011259#1" />
    <route id="193" edges="-435834767 -435381806#1 163148368#1 56150140 435542925#0 980841225#1 435542921#0 435542924#1 435542920 435542901#1 435542903#0 143926851#1 990453574#1 314011263#2" />
    <route id="194" edges="435381803#0 163148368#1 56150140 435542925#0 980841225#1 435542921#0 435542924#1 435542920 435542901#1 435542903#0 143926851#1 990453574#1 -435561326#0 -435561323" />
    <route id="195" edges="435381809#0 435834768#0 377897003#1 435381826#0 163148368#1 56150140 435542925#0 980841225#1 435542921#0 435542924#1 435542920 435542901#1 435542903#0 E1" />
    <route id="196" edges="435381830#0 377897003#1 435381826#0 163148368#1 56150140 435542925#0 980841225#1 435542921#0 435542924#1 435542920 435542901#1 435542903#0 -740147205#1 -740147205#0" />
    <route id="197" edges="435381830#0 377897003#1 435381826#0 163148368#1 56150140 435542925#0 980841225#1 435542921#0 435542924#1 435542920 435542901#1 435542903#0 143926851#1 185528581#1" />
    <route id="198" edges="435542910#0 435542919 626290592 277219207#0 904944343#1 435542922#0 435542918#1 1243008255 23887479 435381827#0 377897004#1 435381825#0 -435834768#0 -435381809#0" />
    <route id="199" edges="435542913#0 435542919 626290592 277219207#0 904944343#1 435542922#0 435542918#1 1243008255 23887479 435381827#0 377897004#1 435381825#0 -435834768#0 -435381809#0" />
    <route id="200" edges="740147205#0 740147205#1 488357314#1 435542902#0 435542919 626290592 277219207#0 904944343#1 435542922#0 435542918#1 1243008255 23887479 435381827#0 -435381803#0" />
    <route id="201" edges="E0 488357314#1 435542902#0 435542919 626290592 277219207#0 904944343#1 435542922#0 435542918#1 1243008255 23887479 435381827#0 435381806#1 435834767" />
    <route id="202" edges="-163148288#1 377897003#1 435381826#0 163148368#1 56150140 435542925#0 980841225#1 435542921#0 435542924#1 435542920 435542901#1 435542903#0 143926851#1 990453574#1 314011259#1" />
    <route id="203" edges="-163148288#1 377897003#1 435381826#0 163148368#1 56150140 435542925#0 980841225#1 435542921#0 435542924#1 435542920 435542901#1 435542903#0 143926851#1 990453574#1 314011263#2" />
    <route id="204" edges="-435834767 -435381806#1 163148368#1 56150140 435542925#0 980841225#1 435542921#0 435542924#1 435542920 435542901#1 435542903#0 143926851#1 990453574#1 -435561326#0 -435561323" />
    <route id="205" edges="435381809#0 435834768#0 377897003#1 435381826#0 163148368#1 56150140 435542925#0 980841225#1 435542921#0 435542924#1 435542920 435542901#1 435542903#0 -740147205#1 -740147205#0" />
    <route id="206" edges="435381809#0 435834768#0 377897003#1 435381826#0 163148368#1 56150140 435542925#0 980841225#1 435542921#0 435542924#1 435542920 435542901#1 435542903#0 143926851#1 185528581#1" />
    <route id="207" edges="435381830#0 377897003#1 435381826#0 163148368#1 56150140 435542925#0 980841225#1 435542921#0 435542924#1 435542920 435542901#1 435542903#0 143926851#1 990453574#1 314011259#1" />
    <route id="208" edges="435381830#0 377897003#1 435381826#0 163148368#1 56150140 435542925#0 980841225#1 435542921#0 435542924#1 435542920 435542901#1 435542903#0 143926851#1 990453574#1 314011263#2" />
    <route id="209" edges="625621676#0 56150137#2 435561310#0 488357314#1 435542902#0 435542919 626290592 277219207#0 904944343#1 435542922#0 435542918#1 1243008255 23887479 435381827#0 -435381803#0" />
    <route id="210" edges="740147205#0 740147205#1 488357314#1 435542902#0 435542919 626290592 277219207#0 904944343#1 435542922#0 435542918#1 1243008255 23887479 435381827#0 435381806#1 435834767" />
    <route id="211" edges="E0 488357314#1 435542902#0 435542919 626290592 277219207#0 904944343#1 435542922#0 435542918#1 1243008255 23887479 435381827#0 377897004#1 435381825#0 1000784669#1" />
    <route id="212" edges="E0 488357314#1 435542902#0 435542919 626290592 277219207#0 904944343#1 435542922#0 435542918#1 1243008255 23887479 435381827#0 377897004#1 435381825#0 163148288#1" />
    <route id="213" edges="-163148288#1 377897003#1 435381826#0 163148368#1 56150140 435542925#0 980841225#1 435542921#0 435542924#1 435542920 435542901#1 435542903#0 143926851#1 990453574#1 -435561326#0 -435561323" />
    <route id="214" edges="435381809#0 435834768#0 377897003#1 435381826#0 163148368#1 56150140 435542925#0 980841225#1 435542921#0 435542924#1 435542920 435542901#1 435542903#0 143926851#1 990453574#1 314011259#1" />
    <route id="215" edges="435381809#0 435834768#0 377897003#1 435381826#0 163148368#1 56150140 435542925#0 980841225#1 435542921#0 435542924#1 435542920 435542901#1 435542903#0 143926851#1 990453574#1 314011263#2" />
    <route id="216" edges="435381830#0 377897003#1 435381826#0 163148368#1 56150140 435542925#0 980841225#1 435542921#0 435542924#1 435542920 435542901#1 435542903#0 143926851#1 990453574#1 -435561326#0 -435561323" />
    <route id="217" edges="435561321#0 56150137#1 56150137#2 435561310#0 488357314#1 435542902#0 435542919 626290592 277219207#0 904944343#1 435542922#0 435542918#1 1243008255 23887479 435381827#0 -435381803#0" />
    <route id="218" edges="435561332#0 56150137#1 56150137#2 435561310#0 488357314#1 435542902#0 435542919 626290592 277219207#0 904944343#1 435542922#0 435542918#1 1243008255 23887479 435381827#0 -435381803#0" />
    <route id="219" edges="625621676#0 56150137#2 435561310#0 488357314#1 435542902#0 435542919 626290592 277219207#0 904944343#1 435542922#0 435542918#1 1243008255 23887479 435381827#0 435381806#1 435834767" />
    <route id="220" edges="740147205#0 740147205#1 488357314#1 435542902#0 435542919 626290592 277219207#0 904944343#1 435542922#0 435542918#1 1243008255 23887479 435381827#0 377897004#1 435381825#0 1000784669#1" />
    <route id="221" edges="740147205#0 740147205#1 488357314#1 435542902#0 435542919 626290592 277219207#0 904944343#1 435542922#0 435542918#1 1243008255 23887479 435381827#0 377897004#1 435381825#0 163148288#1" />
    <route id="222" edges="E0 488357314#1 435542902#0 435542919 626290592 277219207#0 904944343#1 435542922#0 435542918#1 1243008255 23887479 435381827#0 377897004#1 435381825#0 -435834768#0 -435381809#0" />
    <route id="223" edges="435381809#0 435834768#0 377897003#1 435381826#0 163148368#1 56150140 435542925#0 980841225#1 435542921#0 435542924#1 435542920 435542901#1 435542903#0 143926851#1 990453574#1 -435561326#0 -435561323" />
    <route id="224" edges="435561321#0 56150137#1 56150137#2 435561310#0 488357314#1 435542902#0 435542919 626290592 277219207#0 904944343#1 435542922#0 435542918#1 1243008255 23887479 435381827#0 435381806#1 435834767" />
    <route id="225" edges="435561323 435561326#0 56150137#1 56150137#2 435561310#0 488357314#1 435542902#0 435542919 626290592 277219207#0 904944343#1 435542922#0 435542918#1 1243008255 23887479 435381827#0 -435381803#0" />
    <route id="226" edges="435561332#0 56150137#1 56150137#2 435561310#0 488357314#1 435542902#0 435542919 626290592 277219207#0 904944343#1 435542922#0 435542918#1 1243008255 23887479 435381827#0 435381806#1 435834767" />