<?xml version='1.0' encoding='UTF-8'?>
<routes xmlns:xsi="http://www.w3.org/2001/XMLSchema-instance" xsi:noNamespaceSchemaLocation="http://sumo.dlr.de/xsd/routes_file.xsd">
    <vType id="hdv" length="4.3" carFollowModel="IDM" emergencyDecel="4.0" laneChangeModel="SL2015" latAlignment="arbitrary" lcKeepRight="0.0" lcOvertakeRight="0.0" maxSpeed="13.41" minGap="2.5" accel="1.0" decel="2" tau="1.4" lcSublane="1.0" maxSpeedLat="5" lcAccelLat="0.7" minGapLat="0.4" lcStrategic="0.5" lcCooperative="1.0" lcPushy="0.4" lcImpatience="0." lcSpeedGain="2.0" />
    <vType id="cav" length="4.3" carFollowModel="IDM" emergencyDecel="4.0" laneChangeModel="SL2015" latAlignment="arbitrary" lcKeepRight="0.0" lcOvertakeRight="0.0" maxSpeed="13.41" minGap="2.5" accel="1.0" decel="2" tau="1.4" lcSublane="1.0" maxSpeedLat="5" lcAccelLat="1.2" minGapLat="0.4" lcStrategic="0.5" lcCooperative="1.0" lcPushy="0.4" lcImpatience="0.9" lcSpeedGain="2.0" />    
	
    <route id="r_east" edges="435381830#0 377897003#1 435381826#0 163148368#1 56150140 435542925#0 980841225#1 435542921#0 435542924#1 435542920 435542901#1 435542903#0 143926851#1 990453574#1 314011259#1" />
	<route id="r_west" edges="435561321#0 56150137#1 56150137#2 435561310#0 488357314#1 435542902#0 435542919 626290592 277219207#0 904944343#1 435542922#0 435542918#1 1243008255 23887479 435381827#0 377897004#1 435381825#0 1000784669#1" />
        
	<flow id="east_lane0_hdv" route="r_east" type="hdv" departSpeed="desired" departLane="0" begin="0.00" end="600.00" vehsPerHour="120.0" /><flow id="east_lane0_cav" route="r_east" type="cav" departSpeed="desired" departLane="0" begin="0.00" end="600.00" vehsPerHour="30.0" /><flow id="east_lane1_hdv" route="r_east" type="hdv" departSpeed="desired" departLane="1" begin="0.00" end="600.00" vehsPerHour="120.0" /><flow id="east_lane1_cav" route="r_east" type="cav" departSpeed="desired" departLane="1" begin="0.00" end="600.00" vehsPerHour="30.0" /><flow id="west_lane1_hdv" route="r_west" type="hdv" departSpeed="desired" departLane="1" begin="0.00" end="600.00" vehsPerHour="120.0" /><flow id="west_lane1_cav" route="r_west" type="cav" departSpeed="desired" departLane="1" begin="0.00" end="600.00" vehsPerHour="30.0" /><flow id="west_lane2_hdv" route="r_west" type="hdv" departSpeed="desired" departLane="2" begin="0.00" end="600.00" vehsPerHour="120.0" /><flow id="west_lane2_cav" route="r_west" type="cav" departSpeed="desired" departLane="2" begin="0.00" end="600.00" vehsPerHour="30.0" /></routes>
