<net xmlns:xsi="http://www.w3.org/2001/XMLSchema-instance" version="1.9" junctionCornerDetail="5" limitTurnSpeed="5.50" xsi:noNamespaceSchemaLocation="http://sumo.dlr.de/xsd/net_file.xsd">

    <location netOffset="0.00,0.00" convBoundary="0.00,0.00,600.00,0.00" origBoundary="10000000000.00,10000000000.00,-10000000000.00,-10000000000.00" projParameter="!" />

    <type id="edgeType_0" />

    <edge id=":gneJ1_0" function="internal">
        <lane id=":gneJ1_0_0" index="0" speed="13.89" length="0.10" shape="300.00,-8.00 300.00,-8.00" />
        <lane id=":gneJ1_0_1" index="1" speed="13.89" length="0.10" shape="300.00,-4.80 300.00,-4.80" />
        <lane id=":gneJ1_0_2" index="2" speed="13.89" length="0.10" shape="300.00,-1.60 300.00,-1.60" />
    </edge>

    <edge id="gneE0" from="gneJ0" to="gneJ1" priority="-1" length="200.00">
        <lane id="gneE0_0" index="0" speed="25" length="300.00" shape="0.00,-8.00 200.00,-8.00" />
        <lane id="gneE0_1" index="1" speed="25" length="300.00" shape="0.00,-4.80 200.00,-4.80" />
        <lane id="gneE0_2" index="2" speed="25" length="300.00" shape="0.00,-1.60 200.00,-1.60" />
    </edge>
    <edge id="gneE1" from="gneJ1" to="gneJ2" priority="-1" spreadType="roadCenter" length="350.00">
        <lane id="gneE1_0" index="0" speed="25" length="300.00" shape="300.00,-8.00 650.00,-8.00" />
        <lane id="gneE1_1" index="1" speed="25" length="300.00" shape="300.00,-4.80 650.00,-4.80" />
        <lane id="gneE1_2" index="2" speed="25" length="300.00" shape="300.00,-1.60 650.00,-1.60" />
    </edge>

    <tlLogic id="gneJ1" type="static" programID="0" offset="0">
        <phase duration="3" state="yyy" />
        <phase duration="20" state="rrr" />
        <phase duration="15" state="GGG" />
    </tlLogic>

    <junction id="gneJ0" type="dead_end" x="0.00" y="0.00" incLanes="" intLanes="" shape="0.00,0.00 0.00,-9.60" />
    <junction id="gneJ1" type="traffic_light" x="200.00" y="0.00" incLanes="gneE0_0 gneE0_1 gneE0_2" intLanes=":gneJ1_0_0 :gneJ1_0_1 :gneJ1_0_2" shape="200.00,0.00 200.00,-9.60 200.00,0.00">
        <request index="0" response="000" foes="000" cont="0" />
        <request index="1" response="000" foes="000" cont="0" />
        <request index="2" response="000" foes="000" cont="0" />
    </junction>
    <junction id="gneJ2" type="dead_end" x="650.00" y="0.00" incLanes="gneE1_0 gneE1_1 gneE1_2" intLanes="" shape="650.00,-9.60 650.00,0.00" />

    <connection from="gneE0" to="gneE1" fromLane="0" toLane="0" via=":gneJ1_0_0" tl="gneJ1" linkIndex="0" dir="s" state="O" />
    <connection from="gneE0" to="gneE1" fromLane="1" toLane="1" via=":gneJ1_0_1" tl="gneJ1" linkIndex="1" dir="s" state="O" />
    <connection from="gneE0" to="gneE1" fromLane="2" toLane="2" via=":gneJ1_0_2" tl="gneJ1" linkIndex="2" dir="s" state="O" />

    <connection from=":gneJ1_0" to="gneE1" fromLane="0" toLane="0" dir="s" state="M" />
    <connection from=":gneJ1_0" to="gneE1" fromLane="1" toLane="1" dir="s" state="M" />
    <connection from=":gneJ1_0" to="gneE1" fromLane="2" toLane="2" dir="s" state="M" />

</net>