<net xmlns:xsi="http://www.w3.org/2001/XMLSchema-instance" version="1.9" junctionCornerDetail="5" limitTurnSpeed="5.50" xsi:noNamespaceSchemaLocation="http://sumo.dlr.de/xsd/net_file.xsd">

    <location netOffset="-442416.90,-4637873.05" convBoundary="573.51,499.31,2422.47,764.39" origBoundary="-87.694171,41.890782,-87.664968,41.903289" projParameter="+proj=utm +zone=16 +ellps=WGS84 +datum=WGS84 +units=m +no_defs" />

    <type id="highway.bridleway" priority="1" numLanes="1" speed="2.78" allow="pedestrian" oneway="1" width="2.00" />
    <type id="highway.bus_guideway" priority="1" numLanes="1" speed="27.78" allow="bus" oneway="1" />
    <type id="highway.cycleway" priority="1" numLanes="1" speed="8.33" allow="bicycle" oneway="1" width="1.00" />
    <type id="highway.footway" priority="1" numLanes="1" speed="2.78" allow="pedestrian" oneway="1" width="2.00" />
    <type id="highway.ford" priority="1" numLanes="1" speed="2.78" allow="army" oneway="1" />
    <type id="highway.living_street" priority="2" numLanes="1" speed="2.78" disallow="tram rail_urban rail rail_electric rail_fast ship" oneway="1" />
    <type id="highway.motorway" priority="14" numLanes="2" speed="39.44" allow="private emergency authority army vip passenger hov taxi bus coach delivery truck trailer motorcycle evehicle custom1 custom2" oneway="1" />
    <type id="highway.motorway_link" priority="9" numLanes="1" speed="22.22" allow="private emergency authority army vip passenger hov taxi bus coach delivery truck trailer motorcycle evehicle custom1 custom2" oneway="1" />
    <type id="highway.path" priority="1" numLanes="1" speed="2.78" allow="pedestrian bicycle" oneway="1" width="2.00" />
    <type id="highway.pedestrian" priority="1" numLanes="1" speed="2.78" allow="pedestrian" oneway="1" width="2.00" />
    <type id="highway.primary" priority="12" numLanes="2" speed="27.78" disallow="tram rail_urban rail rail_electric rail_fast ship" oneway="1" />
    <type id="highway.primary_link" priority="7" numLanes="1" speed="22.22" disallow="tram rail_urban rail rail_electric rail_fast ship" oneway="1" />
    <type id="highway.raceway" priority="15" numLanes="2" speed="83.33" allow="vip" oneway="1" />
    <type id="highway.residential" priority="3" numLanes="1" speed="13.89" disallow="tram rail_urban rail rail_electric rail_fast ship" oneway="1" />
    <type id="highway.secondary" priority="11" numLanes="1" speed="27.78" disallow="tram rail_urban rail rail_electric rail_fast ship" oneway="1" />
    <type id="highway.secondary_link" priority="6" numLanes="1" speed="22.22" disallow="tram rail_urban rail rail_electric rail_fast ship" oneway="1" />
    <type id="highway.service" priority="1" numLanes="1" speed="5.56" allow="pedestrian delivery bicycle" oneway="1" />
    <type id="highway.stairs" priority="1" numLanes="1" speed="1.39" allow="pedestrian" oneway="1" width="2.00" />
    <type id="highway.step" priority="1" numLanes="1" speed="1.39" allow="pedestrian" oneway="1" width="2.00" />
    <type id="highway.steps" priority="1" numLanes="1" speed="1.39" allow="pedestrian" oneway="1" width="2.00" />
    <type id="highway.tertiary" priority="10" numLanes="1" speed="22.22" disallow="tram rail_urban rail rail_electric rail_fast ship" oneway="1" />
    <type id="highway.tertiary_link" priority="5" numLanes="1" speed="22.22" disallow="tram rail_urban rail rail_electric rail_fast ship" oneway="1" />
    <type id="highway.track" priority="1" numLanes="1" speed="5.56" allow="pedestrian motorcycle moped bicycle" oneway="1" />
    <type id="highway.trunk" priority="13" numLanes="2" speed="27.78" disallow="pedestrian bicycle tram rail_urban rail rail_electric rail_fast ship" oneway="1" />
    <type id="highway.trunk_link" priority="8" numLanes="1" speed="22.22" disallow="pedestrian bicycle tram rail_urban rail rail_electric rail_fast ship" oneway="1" />
    <type id="highway.unclassified" priority="4" numLanes="1" speed="13.89" disallow="tram rail_urban rail rail_electric rail_fast ship" oneway="1" />
    <type id="highway.unsurfaced" priority="1" numLanes="1" speed="8.33" disallow="tram rail_urban rail rail_electric rail_fast ship" oneway="1" />
    <type id="railway.highspeed" priority="21" numLanes="1" speed="69.44" allow="rail_fast" oneway="1" />
    <type id="railway.light_rail" priority="19" numLanes="1" speed="27.78" allow="rail_urban" oneway="1" />
    <type id="railway.preserved" priority="16" numLanes="1" speed="27.78" allow="rail" oneway="1" />
    <type id="railway.rail" priority="20" numLanes="1" speed="44.44" allow="rail" oneway="1" />
    <type id="railway.subway" priority="18" numLanes="1" speed="27.78" allow="rail_urban" oneway="1" />
    <type id="railway.tram" priority="17" numLanes="1" speed="13.89" allow="tram" oneway="1" />

    <edge id=":261114939_0" function="internal">
        <lane id=":261114939_0_0" index="0" disallow="tram rail_urban rail rail_electric rail_fast ship" speed="6.36" length="8.58" shape="1830.74,575.41 1828.53,575.73 1826.95,576.76 1825.98,578.50 1825.63,580.94" />
    </edge>
    <edge id=":261114939_1" function="internal">
        <lane id=":261114939_1_0" index="0" disallow="tram rail_urban rail rail_electric rail_fast ship" speed="27.78" length="13.19" shape="1830.74,575.41 1817.55,575.23" />
    </edge>
    <edge id=":261114939_2" function="internal">
        <lane id=":261114939_2_0" index="0" disallow="tram rail_urban rail rail_electric rail_fast ship" speed="7.69" length="4.36" shape="1830.74,575.41 1827.77,574.56 1826.78,573.76" />
    </edge>
    <edge id=":261114939_3" function="internal">
        <lane id=":261114939_3_0" index="0" disallow="tram rail_urban rail rail_electric rail_fast ship" speed="3.65" length="2.34" shape="1830.74,575.41 1829.55,574.59 1829.16,573.79" />
    </edge>
    <edge id=":261114939_16" function="internal">
        <lane id=":261114939_16_0" index="0" disallow="tram rail_urban rail rail_electric rail_fast ship" speed="7.69" length="8.65" shape="1826.78,573.76 1825.16,572.44 1823.31,569.58 1822.63,566.50" />
    </edge>
    <edge id=":261114939_17" function="internal">
        <lane id=":261114939_17_0" index="0" disallow="tram rail_urban rail rail_electric rail_fast ship" speed="3.65" length="2.34" shape="1829.16,573.79 1829.57,572.99 1830.78,572.21" />
    </edge>
    <edge id=":261114939_4" function="internal">
        <lane id=":261114939_4_0" index="0" disallow="tram rail_urban rail rail_electric rail_fast ship" speed="6.36" length="8.58" shape="1825.83,566.54 1826.11,569.00 1827.03,570.76 1828.59,571.83 1830.78,572.21" />
    </edge>
    <edge id=":261114939_5" function="internal">
        <lane id=":261114939_5_0" index="0" disallow="tram rail_urban rail rail_electric rail_fast ship" speed="13.89" length="14.40" shape="1825.83,566.54 1825.63,580.94" />
    </edge>
    <edge id=":261114939_6" function="internal">
        <lane id=":261114939_6_0" index="0" disallow="tram rail_urban rail rail_electric rail_fast ship" speed="7.67" length="4.76" shape="1825.83,566.54 1825.07,569.59 1824.17,570.93" />
    </edge>
    <edge id=":261114939_7" function="internal">
        <lane id=":261114939_7_0" index="0" disallow="tram rail_urban rail rail_electric rail_fast ship" speed="3.65" length="2.34" shape="1825.83,566.54 1825.01,567.73 1824.20,568.12" />
    </edge>
    <edge id=":261114939_18" function="internal">
        <lane id=":261114939_18_0" index="0" disallow="tram rail_urban rail rail_electric rail_fast ship" speed="7.67" length="8.20" shape="1824.17,570.93 1823.17,572.41 1820.52,574.46 1817.55,575.23" />
    </edge>
    <edge id=":261114939_19" function="internal">
        <lane id=":261114939_19_0" index="0" disallow="tram rail_urban rail rail_electric rail_fast ship" speed="3.65" length="2.34" shape="1824.20,568.12 1823.41,567.71 1822.63,566.50" />
    </edge>
    <edge id=":261114939_8" function="internal">
        <lane id=":261114939_8_0" index="0" disallow="tram rail_urban rail rail_electric rail_fast ship" speed="6.34" length="8.52" shape="1817.59,572.03 1819.77,571.71 1821.33,570.68 1822.28,568.94 1822.63,566.50" />
    </edge>
    <edge id=":261114939_9" function="internal">
        <lane id=":261114939_9_0" index="0" disallow="tram rail_urban rail rail_electric rail_fast ship" speed="27.78" length="13.19" shape="1817.59,572.03 1830.78,572.21" />
    </edge>
    <edge id=":261114939_10" function="internal">
        <lane id=":261114939_10_0" index="0" disallow="tram rail_urban rail rail_electric rail_fast ship" speed="7.67" length="4.33" shape="1817.59,572.03 1820.54,572.88 1821.52,573.68" />
    </edge>
    <edge id=":261114939_11" function="internal">
        <lane id=":261114939_11_0" index="0" disallow="tram rail_urban rail rail_electric rail_fast ship" speed="3.65" length="2.34" shape="1817.59,572.03 1818.78,572.85 1819.17,573.65" />
    </edge>
    <edge id=":261114939_20" function="internal">
        <lane id=":261114939_20_0" index="0" disallow="tram rail_urban rail rail_electric rail_fast ship" speed="7.67" length="8.63" shape="1821.52,573.68 1823.13,575.01 1824.96,577.87 1825.63,580.94" />
    </edge>
    <edge id=":261114939_21" function="internal">
        <lane id=":261114939_21_0" index="0" disallow="tram rail_urban rail rail_electric rail_fast ship" speed="3.65" length="2.34" shape="1819.17,573.65 1818.76,574.45 1817.55,575.23" />
    </edge>
    <edge id=":261114939_12" function="internal">
        <lane id=":261114939_12_0" index="0" disallow="tram rail_urban rail rail_electric rail_fast ship" speed="6.34" length="8.52" shape="1822.43,580.90 1822.16,578.44 1821.25,576.68 1819.71,575.61 1817.55,575.23" />
    </edge>
    <edge id=":261114939_13" function="internal">
        <lane id=":261114939_13_0" index="0" disallow="tram rail_urban rail rail_electric rail_fast ship" speed="13.89" length="14.40" shape="1822.43,580.90 1822.63,566.50" />
    </edge>
    <edge id=":261114939_14" function="internal">
        <lane id=":261114939_14_0" index="0" disallow="tram rail_urban rail rail_electric rail_fast ship" speed="7.69" length="4.74" shape="1822.43,580.90 1823.20,577.84 1824.09,576.53" />
    </edge>
    <edge id=":261114939_15" function="internal">
        <lane id=":261114939_15_0" index="0" disallow="tram rail_urban rail rail_electric rail_fast ship" speed="3.65" length="2.34" shape="1822.43,580.90 1823.25,579.71 1824.05,579.32" />
    </edge>
    <edge id=":261114939_22" function="internal">
        <lane id=":261114939_22_0" index="0" disallow="tram rail_urban rail rail_electric rail_fast ship" speed="7.69" length="8.27" shape="1824.09,576.53 1825.12,575.03 1827.79,572.98 1830.78,572.21" />
    </edge>
    <edge id=":261114939_23" function="internal">
        <lane id=":261114939_23_0" index="0" disallow="tram rail_urban rail rail_electric rail_fast ship" speed="3.65" length="2.34" shape="1824.05,579.32 1824.85,579.73 1825.63,580.94" />
    </edge>
    <edge id=":261115163_0" function="internal">
        <lane id=":261115163_0_0" index="0" disallow="tram rail_urban rail rail_electric rail_fast ship" speed="27.78" length="11.21" shape="1628.10,572.58 1616.89,572.43" />
    </edge>
    <edge id=":261115163_1" function="internal">
        <lane id=":261115163_1_0" index="0" disallow="tram rail_urban rail rail_electric rail_fast ship" speed="7.32" length="4.04" shape="1628.10,572.58 1625.66,572.00 1624.56,570.94" />
    </edge>
    <edge id=":261115163_2" function="internal">
        <lane id=":261115163_2_0" index="0" disallow="tram rail_urban rail rail_electric rail_fast ship" speed="3.65" length="2.34" shape="1628.10,572.58 1626.92,571.77 1626.53,570.96" />
    </edge>
    <edge id=":261115163_9" function="internal">
        <lane id=":261115163_9_0" index="0" disallow="tram rail_urban rail rail_electric rail_fast ship" speed="7.32" length="7.68" shape="1624.56,570.94 1623.93,570.33 1622.92,567.56 1622.63,563.71" />
    </edge>
    <edge id=":261115163_10" function="internal">
        <lane id=":261115163_10_0" index="0" disallow="tram rail_urban rail rail_electric rail_fast ship" speed="3.65" length="2.34" shape="1626.53,570.96 1626.94,570.17 1628.15,569.38" />
    </edge>
    <edge id=":261115163_3" function="internal">
        <lane id=":261115163_3_0" index="0" disallow="tram rail_urban rail rail_electric rail_fast ship" speed="6.52" length="9.04" shape="1616.94,569.23 1619.40,568.92 1621.16,567.89 1622.24,566.15 1622.63,563.71" />
    </edge>
    <edge id=":261115163_4" function="internal">
        <lane id=":261115163_4_0" index="0" disallow="tram rail_urban rail rail_electric rail_fast ship" speed="27.78" length="11.21" shape="1616.94,569.23 1628.15,569.38" />
    </edge>
    <edge id=":261115163_5" function="internal">
        <lane id=":261115163_5_0" index="0" disallow="tram rail_urban rail rail_electric rail_fast ship" speed="3.65" length="2.34" shape="1616.94,569.23 1618.13,570.05 1618.52,570.86" />
    </edge>
    <edge id=":261115163_11" function="internal">
        <lane id=":261115163_11_0" index="0" disallow="tram rail_urban rail rail_electric rail_fast ship" speed="3.65" length="2.34" shape="1618.52,570.86 1618.10,571.65 1616.89,572.43" />
    </edge>
    <edge id=":261115163_6" function="internal">
        <lane id=":261115163_6_0" index="0" disallow="tram rail_urban rail rail_electric rail_fast ship" speed="6.50" length="9.03" shape="1622.41,578.11 1622.10,575.66 1621.07,573.89 1619.34,572.82 1616.89,572.43" />
    </edge>
    <edge id=":261115163_7" function="internal">
        <lane id=":261115163_7_0" index="0" disallow="tram rail_urban rail rail_electric rail_fast ship" speed="13.89" length="14.41" shape="1622.41,578.11 1622.63,563.71" />
    </edge>
    <edge id=":261115163_8" function="internal">
        <lane id=":261115163_8_0" index="0" disallow="tram rail_urban rail rail_electric rail_fast ship" speed="7.33" length="11.74" shape="1622.41,578.11 1622.82,574.27 1623.91,571.53 1625.69,569.90 1628.15,569.38" />
    </edge>
    <edge id=":261135333_0" function="internal">
        <lane id=":261135333_0_0" index="0" disallow="tram rail_urban rail rail_electric rail_fast ship" speed="6.30" length="8.44" shape="816.81,561.06 814.68,561.37 813.14,562.40 812.21,564.14 811.88,566.59" />
    </edge>
    <edge id=":261135333_1" function="internal">
        <lane id=":261135333_1_0" index="0" disallow="tram rail_urban rail rail_electric rail_fast ship" speed="27.78" length="13.23" shape="816.81,561.06 803.58,560.86" />
    </edge>
    <edge id=":261135333_2" function="internal">
        <lane id=":261135333_2_0" index="0" disallow="tram rail_urban rail rail_electric rail_fast ship" speed="7.60" length="4.35" shape="816.81,561.06 813.91,560.23 812.87,559.40" />
    </edge>
    <edge id=":261135333_3" function="internal">
        <lane id=":261135333_3_0" index="0" disallow="tram rail_urban rail rail_electric rail_fast ship" speed="3.65" length="2.34" shape="816.81,561.06 815.62,560.24 815.23,559.43" />
    </edge>
    <edge id=":261135333_16" function="internal">
        <lane id=":261135333_16_0" index="0" disallow="tram rail_urban rail rail_electric rail_fast ship" speed="7.60" length="8.33" shape="812.87,559.40 811.35,558.18 809.53,555.41 808.86,552.41" />
    </edge>
    <edge id=":261135333_17" function="internal">
        <lane id=":261135333_17_0" index="0" disallow="tram rail_urban rail rail_electric rail_fast ship" speed="3.65" length="2.34" shape="815.23,559.43 815.65,558.64 816.86,557.86" />
    </edge>
    <edge id=":261135333_4" function="internal">
        <lane id=":261135333_4_0" index="0" disallow="tram rail_urban rail rail_electric rail_fast ship" speed="6.25" length="8.23" shape="812.06,552.46 812.33,554.79 813.22,556.47 814.73,557.49 816.86,557.86" />
    </edge>
    <edge id=":261135333_5" function="internal">
        <lane id=":261135333_5_0" index="0" disallow="tram rail_urban rail rail_electric rail_fast ship" speed="13.89" length="14.13" shape="812.06,552.46 811.88,566.59" />
    </edge>
    <edge id=":261135333_6" function="internal">
        <lane id=":261135333_6_0" index="0" disallow="tram rail_urban rail rail_electric rail_fast ship" speed="7.66" length="4.56" shape="812.06,552.46 811.27,555.46 810.41,556.64" />
    </edge>
    <edge id=":261135333_7" function="internal">
        <lane id=":261135333_7_0" index="0" disallow="tram rail_urban rail rail_electric rail_fast ship" speed="3.65" length="2.34" shape="812.06,552.46 811.25,553.65 810.44,554.04" />
    </edge>
    <edge id=":261135333_18" function="internal">
        <lane id=":261135333_18_0" index="0" disallow="tram rail_urban rail rail_electric rail_fast ship" speed="7.66" length="8.33" shape="810.41,556.64 809.29,558.17 806.58,560.13 803.58,560.86" />
    </edge>
    <edge id=":261135333_19" function="internal">
        <lane id=":261135333_19_0" index="0" disallow="tram rail_urban rail rail_electric rail_fast ship" speed="3.65" length="2.34" shape="810.44,554.04 809.65,553.63 808.86,552.41" />
    </edge>
    <edge id=":261135333_8" function="internal">
        <lane id=":261135333_8_0" index="0" disallow="tram rail_urban rail rail_electric rail_fast ship" speed="6.32" length="8.45" shape="803.62,557.66 805.89,557.36 807.51,556.38 808.51,554.73 808.86,552.41" />
    </edge>
    <edge id=":261135333_9" function="internal">
        <lane id=":261135333_9_0" index="0" disallow="tram rail_urban rail rail_electric rail_fast ship" speed="27.78" length="13.24" shape="803.62,557.66 816.86,557.86" />
    </edge>
    <edge id=":261135333_10" function="internal">
        <lane id=":261135333_10_0" index="0" disallow="tram rail_urban rail rail_electric rail_fast ship" speed="7.73" length="4.43" shape="803.62,557.66 806.63,558.51 807.65,559.32" />
    </edge>
    <edge id=":261135333_11" function="internal">
        <lane id=":261135333_11_0" index="0" disallow="tram rail_urban rail rail_electric rail_fast ship" speed="3.65" length="2.34" shape="803.62,557.66 804.81,558.48 805.20,559.28" />
    </edge>
    <edge id=":261135333_20" function="internal">
        <lane id=":261135333_20_0" index="0" disallow="tram rail_urban rail rail_electric rail_fast ship" speed="7.73" length="8.70" shape="807.65,559.32 809.29,560.62 811.18,563.49 811.88,566.59" />
    </edge>
    <edge id=":261135333_21" function="internal">
        <lane id=":261135333_21_0" index="0" disallow="tram rail_urban rail rail_electric rail_fast ship" speed="3.65" length="2.34" shape="805.20,559.28 804.79,560.08 803.58,560.86" />
    </edge>
    <edge id=":261135333_12" function="internal">
        <lane id=":261135333_12_0" index="0" disallow="tram rail_urban rail rail_electric rail_fast ship" speed="6.41" length="8.71" shape="808.68,566.55 808.39,564.09 807.44,562.32 805.84,561.24 803.58,560.86" />
    </edge>
    <edge id=":261135333_13" function="internal">
        <lane id=":261135333_13_0" index="0" disallow="tram rail_urban rail rail_electric rail_fast ship" speed="13.89" length="14.14" shape="808.68,566.55 808.86,552.41" />
    </edge>
    <edge id=":261135333_14" function="internal">
        <lane id=":261135333_14_0" index="0" disallow="tram rail_urban rail rail_electric rail_fast ship" speed="7.64" length="4.79" shape="808.68,566.55 809.42,563.51 810.34,562.12" />
    </edge>
    <edge id=":261135333_15" function="internal">
        <lane id=":261135333_15_0" index="0" disallow="tram rail_urban rail rail_electric rail_fast ship" speed="3.65" length="2.34" shape="808.68,566.55 809.50,565.36 810.30,564.97" />
    </edge>
    <edge id=":261135333_22" function="internal">
        <lane id=":261135333_22_0" index="0" disallow="tram rail_urban rail rail_electric rail_fast ship" speed="7.64" length="8.10" shape="810.34,562.12 811.30,560.69 813.91,558.63 816.86,557.86" />
    </edge>
    <edge id=":261135333_23" function="internal">
        <lane id=":261135333_23_0" index="0" disallow="tram rail_urban rail rail_electric rail_fast ship" speed="3.65" length="2.34" shape="810.30,564.97 811.10,565.38 811.88,566.59" />
    </edge>
    <edge id=":261163627_0" function="internal">
        <lane id=":261163627_0_0" index="0" disallow="tram rail_urban rail rail_electric rail_fast ship" speed="6.51" length="9.00" shape="1527.05,571.17 1524.61,571.48 1522.85,572.51 1521.77,574.24 1521.37,576.67" />
    </edge>
    <edge id=":261163627_1" function="internal">
        <lane id=":261163627_1_0" index="0" disallow="tram rail_urban rail rail_electric rail_fast ship" speed="27.78" length="11.14" shape="1527.05,571.17 1515.91,571.01" />
    </edge>
    <edge id=":261163627_2" function="internal">
        <lane id=":261163627_2_0" index="0" disallow="tram rail_urban rail rail_electric rail_fast ship" speed="3.65" length="2.34" shape="1527.05,571.17 1525.87,570.35 1525.48,569.55" />
    </edge>
    <edge id=":261163627_6" function="internal">
        <lane id=":261163627_6_0" index="0" disallow="tram rail_urban rail rail_electric rail_fast ship" speed="3.65" length="2.34" shape="1525.48,569.55 1525.89,568.75 1527.10,567.97" />
    </edge>
    <edge id=":261163627_3" function="internal">
        <lane id=":261163627_3_0" index="0" disallow="tram rail_urban rail rail_electric rail_fast ship" speed="27.78" length="11.15" shape="1515.96,567.81 1527.10,567.97" />
    </edge>
    <edge id=":261163627_4" function="internal">
        <lane id=":261163627_4_0" index="0" disallow="tram rail_urban rail rail_electric rail_fast ship" speed="7.30" length="4.04" shape="1515.96,567.81 1518.40,568.40 1519.49,569.46" />
    </edge>
    <edge id=":261163627_5" function="internal">
        <lane id=":261163627_5_0" index="0" disallow="tram rail_urban rail rail_electric rail_fast ship" speed="3.65" length="2.34" shape="1515.96,567.81 1517.14,568.63 1517.53,569.44" />
    </edge>
    <edge id=":261163627_7" function="internal">
        <lane id=":261163627_7_0" index="0" disallow="tram rail_urban rail rail_electric rail_fast ship" speed="7.30" length="7.65" shape="1519.49,569.46 1520.11,570.07 1521.11,572.83 1521.37,576.67" />
    </edge>
    <edge id=":261163627_8" function="internal">
        <lane id=":261163627_8_0" index="0" disallow="tram rail_urban rail rail_electric rail_fast ship" speed="3.65" length="2.34" shape="1517.53,569.44 1517.12,570.23 1515.91,571.01" />
    </edge>
    <edge id=":261163628_0" function="internal">
        <lane id=":261163628_0_0" index="0" disallow="tram rail_urban rail rail_electric rail_fast ship" speed="5.95" length="7.29" shape="1426.49,576.21 1424.00,576.38 1422.21,576.95 1421.12,577.94 1420.73,579.33" />
    </edge>
    <edge id=":261163628_1" function="internal">
        <lane id=":261163628_1_0" index="0" disallow="tram rail_urban rail rail_electric rail_fast ship" speed="27.78" length="14.26" shape="1426.49,576.21 1422.36,575.66 1419.63,574.52 1416.89,573.39 1412.76,572.84" />
        <lane id=":261163628_1_1" index="1" disallow="tram rail_urban rail rail_electric rail_fast ship" speed="27.78" length="14.26" shape="1426.53,573.01 1422.40,572.46 1419.67,571.32 1416.93,570.19 1412.80,569.64" />
    </edge>
    <edge id=":261163628_3" function="internal">
        <lane id=":261163628_3_0" index="0" disallow="tram rail_urban rail rail_electric rail_fast ship" speed="8.71" length="17.09" shape="1426.57,569.81 1422.74,568.99 1420.04,566.65 1418.47,562.77 1418.02,557.38" />
    </edge>
    <edge id=":261163628_4" function="internal">
        <lane id=":261163628_4_0" index="0" disallow="tram rail_urban rail rail_electric rail_fast ship" speed="3.65" length="4.67" shape="1426.57,569.81 1425.40,568.97 1425.03,568.15 1425.45,567.37 1426.68,566.61" />
    </edge>
    <edge id=":261163628_5" function="internal">
        <lane id=":261163628_5_0" index="0" disallow="tram rail_urban rail rail_electric rail_fast ship" speed="6.57" length="9.27" shape="1421.22,557.44 1421.52,560.02 1422.54,561.88 1424.27,563.01 1426.72,563.41" />
    </edge>
    <edge id=":261163628_6" function="internal">
        <lane id=":261163628_6_0" index="0" disallow="tram rail_urban rail rail_electric rail_fast ship" speed="27.78" length="21.90" shape="1421.22,557.44 1420.73,579.33" />
    </edge>
    <edge id=":261163628_7" function="internal">
        <lane id=":261163628_7_0" index="0" disallow="tram rail_urban rail rail_electric rail_fast ship" speed="8.65" length="8.43" shape="1421.22,557.44 1420.61,562.81 1419.44,565.59" />
    </edge>
    <edge id=":261163628_8" function="internal">
        <lane id=":261163628_8_0" index="0" disallow="tram rail_urban rail rail_electric rail_fast ship" speed="3.65" length="2.34" shape="1421.22,557.44 1420.40,558.62 1419.59,559.00" />
    </edge>
    <edge id=":261163628_18" function="internal">
        <lane id=":261163628_18_0" index="0" disallow="tram rail_urban rail rail_electric rail_fast ship" speed="8.65" length="8.26" shape="1419.44,565.59 1419.00,566.64 1416.40,568.91 1412.80,569.64" />
    </edge>
    <edge id=":261163628_19" function="internal">
        <lane id=":261163628_19_0" index="0" disallow="tram rail_urban rail rail_electric rail_fast ship" speed="3.65" length="2.34" shape="1419.59,559.00 1418.80,558.59 1418.02,557.38" />
    </edge>
    <edge id=":261163628_9" function="internal">
        <lane id=":261163628_9_0" index="0" disallow="tram rail_urban rail rail_electric rail_fast ship" speed="5.60" length="6.40" shape="1412.92,560.04 1415.13,559.90 1416.72,559.40 1417.68,558.56 1418.02,557.38" />
    </edge>
    <edge id=":261163628_10" function="internal">
        <lane id=":261163628_10_0" index="0" disallow="tram rail_urban rail rail_electric rail_fast ship" speed="27.78" length="14.32" shape="1412.92,560.04 1417.07,560.59 1419.82,561.72 1422.57,562.86 1426.72,563.41" />
        <lane id=":261163628_10_1" index="1" disallow="tram rail_urban rail rail_electric rail_fast ship" speed="27.78" length="14.32" shape="1412.88,563.24 1417.03,563.79 1419.78,564.92 1422.53,566.06 1426.68,566.61" />
    </edge>
    <edge id=":261163628_12" function="internal">
        <lane id=":261163628_12_0" index="0" disallow="tram rail_urban rail rail_electric rail_fast ship" speed="8.68" length="17.05" shape="1412.84,566.44 1416.42,567.28 1418.92,569.71 1420.36,573.73 1420.73,579.33" />
    </edge>
    <edge id=":261163628_13" function="internal">
        <lane id=":261163628_13_0" index="0" disallow="tram rail_urban rail rail_electric rail_fast ship" speed="3.65" length="4.67" shape="1412.84,566.44 1414.03,567.25 1414.42,568.06 1414.01,568.85 1412.80,569.64" />
    </edge>
    <edge id=":261163628_14" function="internal">
        <lane id=":261163628_14_0" index="0" disallow="tram rail_urban rail rail_electric rail_fast ship" speed="6.50" length="9.10" shape="1417.53,579.25 1417.30,576.47 1416.42,574.47 1414.91,573.26 1412.76,572.84" />
    </edge>
    <edge id=":261163628_15" function="internal">
        <lane id=":261163628_15_0" index="0" disallow="tram rail_urban rail rail_electric rail_fast ship" speed="27.78" length="21.88" shape="1417.53,579.25 1418.02,557.38" />
    </edge>
    <edge id=":261163628_16" function="internal">
        <lane id=":261163628_16_0" index="0" disallow="tram rail_urban rail rail_electric rail_fast ship" speed="8.89" length="8.29" shape="1417.53,579.25 1418.23,573.68 1419.31,571.23" />
    </edge>
    <edge id=":261163628_17" function="internal">
        <lane id=":261163628_17_0" index="0" disallow="tram rail_urban rail rail_electric rail_fast ship" speed="3.65" length="2.34" shape="1417.53,579.25 1418.36,578.07 1419.17,577.69" />
    </edge>
    <edge id=":261163628_20" function="internal">
        <lane id=":261163628_20_0" index="0" disallow="tram rail_urban rail rail_electric rail_fast ship" speed="8.89" length="9.28" shape="1419.31,571.23 1419.98,569.72 1422.80,567.36 1426.68,566.61" />
    </edge>
    <edge id=":261163628_21" function="internal">
        <lane id=":261163628_21_0" index="0" disallow="tram rail_urban rail rail_electric rail_fast ship" speed="3.65" length="2.34" shape="1419.17,577.69 1419.96,578.11 1420.73,579.33" />
    </edge>
    <edge id=":261163629_0" function="internal">
        <lane id=":261163629_0_0" index="0" disallow="tram rail_urban rail rail_electric rail_fast ship" speed="6.29" length="8.36" shape="1222.47,566.69 1220.39,567.01 1218.89,568.04 1217.98,569.78 1217.65,572.23" />
    </edge>
    <edge id=":261163629_1" function="internal">
        <lane id=":261163629_1_0" index="0" disallow="tram rail_urban rail rail_electric rail_fast ship" speed="27.78" length="10.36" shape="1222.47,566.69 1212.11,566.59" />
    </edge>
    <edge id=":261163629_2" function="internal">
        <lane id=":261163629_2_0" index="0" disallow="tram rail_urban rail rail_electric rail_fast ship" speed="3.65" length="2.34" shape="1222.47,566.69 1221.29,565.87 1220.90,565.07" />
    </edge>
    <edge id=":261163629_9" function="internal">
        <lane id=":261163629_9_0" index="0" disallow="tram rail_urban rail rail_electric rail_fast ship" speed="3.65" length="2.34" shape="1220.90,565.07 1221.31,564.27 1222.52,563.49" />
    </edge>
    <edge id=":261163629_3" function="internal">
        <lane id=":261163629_3_0" index="0" disallow="tram rail_urban rail rail_electric rail_fast ship" speed="6.29" length="8.36" shape="1217.86,557.82 1218.12,560.28 1218.98,562.04 1220.45,563.11 1222.52,563.49" />
    </edge>
    <edge id=":261163629_4" function="internal">
        <lane id=":261163629_4_0" index="0" disallow="tram rail_urban rail rail_electric rail_fast ship" speed="13.89" length="14.41" shape="1217.86,557.82 1217.65,572.23" />
    </edge>
    <edge id=":261163629_5" function="internal">
        <lane id=":261163629_5_0" index="0" disallow="tram rail_urban rail rail_electric rail_fast ship" speed="7.36" length="11.76" shape="1217.86,557.82 1217.45,561.67 1216.36,564.41 1214.58,566.05 1212.11,566.59" />
    </edge>
    <edge id=":261163629_6" function="internal">